feeders/30_SE001_1/008_segmentoBT.dss
New Line.SBT_19609 phases=2 bus1=ET1_1368.1.4 bus2=BT301291.1.4 linecode=60_2 length=0.09837 units=km
New Line.SBT_34317 phases=4 bus1=ET1_1618.1.2.3.4 bus2=BT301351.1.2.3.4 linecode=74_4 length=0.04655 units=km
New Line.SBT_34318 phases=4 bus1=ET1_1618.1.2.3.4 bus2=BT799531.1.2.3.4 linecode=74_4 length=0.04311 units=km
New Line.SBT_34820 phases=4 bus1=BT288332.1.2.3.4 bus2=BT805911.1.2.3.4 linecode=74_4 length=0.04865 units=km
New Line.SBT_32498 phases=4 bus1=BT781541.1.2.3.4 bus2=BT109242.1.2.3.4 linecode=74_4 length=0.02745 units=km
New Line.SBT_32500 phases=4 bus1=BT781191.1.2.3.4 bus2=BT237381.1.2.3.4 linecode=74_4 length=0.04844 units=km
New Line.SBT_32503 phases=4 bus1=BT781211.1.2.3.4 bus2=BT288332.1.2.3.4 linecode=74_4 length=0.05326 units=km
New Line.SBT_32504 phases=4 bus1=BT288332.1.2.3.4 bus2=BT288341.1.2.3.4 linecode=74_4 length=0.06625 units=km
New Line.SBT_32514 phases=4 bus1=ET1_1621.1.2.3.4 bus2=BT781191.1.2.3.4 linecode=74_4 length=0.04107 units=km
New Line.SBT_32516 phases=4 bus1=ET1_1621.1.2.3.4 bus2=BT781211.1.2.3.4 linecode=74_4 length=0.04352 units=km
New Line.SBT_32518 phases=4 bus1=BT237381.1.2.3.4 bus2=BT781541.1.2.3.4 linecode=74_4 length=0.02819 units=km
New Line.SBT_32519 phases=4 bus1=BT109242.1.2.3.4 bus2=BT781551.1.2.3.4 linecode=74_4 length=0.03141 units=km
New Line.SBT_28536 phases=2 bus1=BT294281.1.4 bus2=BT294271.1.4 linecode=60_2 length=0.09895 units=km
New Line.SBT_28968 phases=2 bus1=BT294281.1.4 bus2=BT294291.1.4 linecode=60_2 length=0.07638 units=km
New Line.SBT_19705 phases=4 bus1=BT477771.1.2.3.4 bus2=BT294321.1.2.3.4 linecode=97_4 length=0.02285 units=km
New Line.SBT_19706 phases=4 bus1=BT294321.1.2.3.4 bus2=BT294311.1.2.3.4 linecode=97_4 length=0.09898 units=km
New Line.SBT_15639 phases=2 bus1=ET1_2041.1.4 bus2=BT378271.1.4 linecode=62_2 length=0.08665 units=km
New Line.SBT_15640 phases=2 bus1=BT378271.1.4 bus2=BT378281.1.4 linecode=62_2 length=0.09508 units=km
New Line.SBT_2077 phases=4 bus1=ET1_2041.1.2.3.4 bus2=BT294341.1.2.3.4 linecode=97_4 length=0.06451 units=km
New Line.SBT_2078 phases=4 bus1=BT294341.1.2.3.4 bus2=BT294351.1.2.3.4 linecode=97_4 length=0.04833 units=km
New Line.SBT_2079 phases=2 bus1=BT294311.1.4 bus2=BT294281.1.4 linecode=60_2 length=0.11227 units=km
New Line.SBT_25784 phases=4 bus1=ET1_2041.1.2.3.4 bus2=BT477771.1.2.3.4 linecode=97_4 length=0.05758 units=km
New Line.SBT_19629 phases=2 bus1=BT301421.1.4 bus2=BT225781.1.4 linecode=60_2 length=0.08314 units=km
New Line.SBT_19630 phases=2 bus1=BT301431.1.4 bus2=BT301441.1.4 linecode=60_2 length=0.10462 units=km
New Line.SBT_1946 phases=2 bus1=BT301421.1.4 bus2=BT301431.1.4 linecode=60_2 length=0.07091 units=km
New Line.SBT_33513 phases=2 bus1=ET1_211.1.4 bus2=BT301421.1.4 linecode=62_2 length=0.0632 units=km
New Line.SBT_33514 phases=4 bus1=ET1_211.1.2.3.4 bus2=BT367392.1.2.3.4 linecode=73_4 length=0.06144 units=km
New Line.SBT_33515 phases=4 bus1=BT367392.1.2.3.4 bus2=BT367401.1.2.3.4 linecode=73_4 length=0.0563 units=km
New Line.SBT_2886 phases=2 bus1=BT285831.1.4 bus2=BT285841.1.4 linecode=62_2 length=0.23721 units=km
New Line.SBT_28096 phases=4 bus1=ET1_2202.1.2.3.4 bus2=BT720201.1.2.3.4 linecode=97_4 length=0.03847 units=km
New Line.SBT_29878 phases=4 bus1=BT285861.1.2.3.4 bus2=BT755761.1.2.3.4 linecode=92_4 length=0.09804 units=km
New Line.SBT_3081 phases=4 bus1=ET1_2202.1.2.3.4 bus2=BT285861.1.2.3.4 linecode=92_4 length=0.0864 units=km
New Line.SBT_3133 phases=2 bus1=BT285831.1.4 bus2=BT344351.1.4 linecode=62_2 length=0.0578 units=km
New Line.SBT_20271 phases=4 bus1=BT720201.1.2.3.4 bus2=BT285831.1.2.3.4 linecode=97_4 length=0.04272 units=km
New Line.SBT_2489 phases=4 bus1=ET1_259.1.2.3.4 bus2=BT284751.1.2.3.4 linecode=97_4 length=0.09521 units=km
New Line.SBT_2490 phases=4 bus1=BT646581.1.2.3.4 bus2=BT284791.1.2.3.4 linecode=97_4 length=0.06522 units=km
New Line.SBT_1956 phases=3 bus1=BT284801.1.2.4 bus2=BT284811.1.2.4 linecode=44_3 length=0.09708 units=km
New Line.SBT_19636 phases=4 bus1=BT284751.1.2.3.4 bus2=BT284771.1.2.3.4 linecode=97_4 length=0.07072 units=km
New Line.SBT_19945 phases=2 bus1=BT284811.1.4 bus2=BT284821.1.4 linecode=60_2 length=0.06356 units=km
New Line.SBT_14631 phases=4 bus1=ET1_259.1.2.3.4 bus2=BT646581.1.2.3.4 linecode=97_4 length=0.04366 units=km
New Line.SBT_31454 phases=3 bus1=BT769881.1.2.4 bus2=BT284801.1.2.4 linecode=44_3 length=0.07197 units=km
New Line.SBT_31455 phases=4 bus1=BT284791.1.2.3.4 bus2=BT769881.1.2.3.4 linecode=97_4 length=0.05871 units=km
New Line.SBT_28963 phases=3 bus1=ET1_2666.1.2.4 bus2=BT288231.1.2.4 linecode=44_3 length=0.05629 units=km
New Line.SBT_14352 phases=2 bus1=ET1_2666.1.4 bus2=BT624191.1.4 linecode=62_2 length=0.03688 units=km
New Line.SBT_16403 phases=4 bus1=BT559921.1.2.3.4 bus2=BT574971.1.2.3.4 linecode=74_4 length=0.04401 units=km
New Line.SBT_16404 phases=4 bus1=BT555371.1.2.3.4 bus2=BT559921.1.2.3.4 linecode=74_4 length=0.04279 units=km
New Line.SBT_16405 phases=4 bus1=BT555371.1.2.3.4 bus2=BT555351.1.2.3.4 linecode=74_4 length=0.03554 units=km
New Line.SBT_16406 phases=4 bus1=BT555351.1.2.3.4 bus2=BT554081.1.2.3.4 linecode=74_4 length=0.03822 units=km
New Line.SBT_16623 phases=4 bus1=ET1_2777.1.2.3.4 bus2=BT555371.1.2.3.4 linecode=73_4 length=0.03384 units=km
New Line.SBT_17367 phases=2 bus1=BT554071.1.4 bus2=BT294431.1.4 linecode=70_2 length=0.04354 units=km
New Line.SBT_17368 phases=2 bus1=BT294431.1.4 bus2=BT294441.1.4 linecode=50_2 length=0.03985 units=km
New Line.SBT_17369 phases=2 bus1=BT441371.1.4 bus2=BT442011.1.4 linecode=50_2 length=0.02693 units=km
New Line.SBT_27776 phases=4 bus1=BT554081.1.2.3.4 bus2=BT554071.1.2.3.4 linecode=74_4 length=0.03947 units=km
New Line.SBT_28328 phases=2 bus1=BT294441.1.4 bus2=BT441371.1.4 linecode=50_2 length=0.04368 units=km
New Line.SBT_31119 phases=2 bus1=BT766641.1.4 bus2=BT366821.1.4 linecode=50_2 length=0.03729 units=km
New Line.SBT_31120 phases=2 bus1=BT766651.1.4 bus2=BT664571.1.4 linecode=50_2 length=0.03761 units=km
New Line.SBT_31121 phases=2 bus1=BT664571.1.4 bus2=BT766641.1.4 linecode=50_2 length=0.02792 units=km
New Line.SBT_31122 phases=2 bus1=BT294431.1.4 bus2=BT766651.1.4 linecode=50_2 length=0.03142 units=km
New Line.SBT_31330 phases=4 bus1=BT768931.1.2.3.4 bus2=BT768941.1.2.3.4 linecode=74_4 length=0.03643 units=km
New Line.SBT_31329 phases=4 bus1=ET1_2804.1.2.3.4 bus2=BT768931.1.2.3.4 linecode=74_4 length=0.03265 units=km
New Line.SBT_21336 phases=4 bus1=BT598941.1.2.3.4 bus2=BT651171.1.2.3.4 linecode=73_4 length=0.03734 units=km
New Line.SBT_13826 phases=4 bus1=ET1_2804.1.2.3.4 bus2=BT598941.1.2.3.4 linecode=73_4 length=0.06896 units=km
New Line.SBT_2530 phases=2 bus1=ET1_294.1.4 bus2=BT294371.1.4 linecode=60_2 length=0.09916 units=km
New Line.SBT_28330 phases=2 bus1=ET1_294.1.4 bus2=BT366811.1.4 linecode=60_2 length=0.03007 units=km
New Line.SBT_30098 phases=4 bus1=BT757731.1.2.3.4 bus2=BT617711.1.2.3.4 linecode=97_4 length=0.04824 units=km
New Line.SBT_30099 phases=4 bus1=ET1_3115.1.2.3.4 bus2=BT757731.1.2.3.4 linecode=97_4 length=0.03757 units=km
New Line.SBT_3541 phases=4 bus1=BT596211.1.2.3.4 bus2=BT596221.1.2.3.4 linecode=97_4 length=0.07201 units=km
New Line.SBT_26213 phases=4 bus1=BT617711.1.2.3.4 bus2=BT288121.1.2.3.4 linecode=97_4 length=0.02816 units=km
New Line.SBT_20528 phases=4 bus1=BT288121.1.2.3.4 bus2=BT596211.1.2.3.4 linecode=97_4 length=0.071 units=km
New Line.SBT_19582 phases=4 bus1=ET1_3115.1.2.3.4 bus2=BT322041.1.2.3.4 linecode=97_4 length=0.03672 units=km
New Line.SBT_19581 phases=4 bus1=ET1_3116.1.2.3.4 bus2=BT296751.1.2.3.4 linecode=97_4 length=0.01772 units=km
New Line.SBT_12991 phases=3 bus1=BT475681.1.2.4 bus2=BT294401.1.2.4 linecode=44_3 length=0.07588 units=km
New Line.SBT_2537 phases=3 bus1=ET1_3171.1.2.4 bus2=BT294411.1.2.4 linecode=44_3 length=0.02502 units=km
New Line.SBT_25794 phases=3 bus1=ET1_3171.1.2.4 bus2=BT475681.1.2.4 linecode=44_3 length=0.05993 units=km
New Line.SBT_2448 phases=3 bus1=BT301251.1.2.4 bus2=BT301261.1.2.4 linecode=44_3 length=0.05608 units=km
New Line.SBT_19621 phases=2 bus1=ET1_33.1.4 bus2=BT301231.1.4 linecode=62_2 length=0.09301 units=km
New Line.SBT_1892 phases=2 bus1=BT301231.1.4 bus2=BT301241.1.4 linecode=62_2 length=0.10648 units=km
New Line.SBT_1929 phases=2 bus1=ET1_33.1.4 bus2=BT301211.1.4 linecode=60_2 length=0.11006 units=km
New Line.SBT_1930 phases=3 bus1=ET1_33.1.2.4 bus2=BT301251.1.2.4 linecode=44_3 length=0.10756 units=km
New Line.SBT_1941 phases=3 bus1=BT301261.1.2.4 bus2=BT301271.1.2.4 linecode=44_3 length=0.04884 units=km
New Line.SBT_22135 phases=4 bus1=ET1_3310.1.2.3.4 bus2=BT248221.1.2.3.4 linecode=97_4 length=0.04177 units=km
New Line.SBT_6366 phases=3 bus1=BT248221.1.2.4 bus2=BT248241.1.2.4 linecode=44_3 length=0.09001 units=km
New Line.SBT_27183 phases=2 bus1=BT258882.1.4 bus2=BT657171.1.4 linecode=60_2 length=0.05162 units=km
New Line.SBT_19538 phases=3 bus1=ET1_3329.1.2.4 bus2=BT258911.1.2.4 linecode=44_3 length=0.08273 units=km
New Line.SBT_1781 phases=3 bus1=ET1_3329.1.2.4 bus2=BT258901.1.2.4 linecode=44_3 length=0.10517 units=km
New Line.SBT_1782 phases=2 bus1=ET1_3329.1.4 bus2=BT258882.1.4 linecode=60_2 length=0.08066 units=km
New Line.SBT_13762 phases=2 bus1=BT258911.1.4 bus2=BT476281.1.4 linecode=60_2 length=0.02912 units=km
New Line.SBT_1942 phases=4 bus1=ET1_34.1.2.3.4 bus2=BT300481.1.2.3.4 linecode=92_4 length=0.06562 units=km
New Line.SBT_1943 phases=4 bus1=BT458341.1.2.3.4 bus2=BT300471.1.2.3.4 linecode=73_4 length=0.05248 units=km
New Line.SBT_1944 phases=4 bus1=ET1_34.1.2.3.4 bus2=BT300451.1.2.3.4 linecode=92_4 length=0.13223 units=km
New Line.SBT_1945 phases=4 bus1=BT300451.1.2.3.4 bus2=BT300441.1.2.3.4 linecode=92_4 length=0.05166 units=km
New Line.SBT_19943 phases=2 bus1=BT300481.1.4 bus2=BT300591.1.4 linecode=60_2 length=0.104 units=km
New Line.SBT_15754 phases=4 bus1=BT300441.1.2.3.4 bus2=BT370741.1.2.3.4 linecode=92_4 length=0.04342 units=km
New Line.SBT_15755 phases=4 bus1=ET1_34.1.2.3.4 bus2=BT458341.1.2.3.4 linecode=73_4 length=0.02062 units=km
New Line.SBT_27412 phases=4 bus1=BT300451.1.2.3.4 bus2=BT458321.1.2.3.4 linecode=73_4 length=0.06168 units=km
New Line.SBT_27413 phases=4 bus1=BT300481.1.2.3.4 bus2=BT478281.1.2.3.4 linecode=97_4 length=0.04817 units=km
New Line.SBT_2487 phases=4 bus1=BT300501.1.2.3.4 bus2=BT300511.1.2.3.4 linecode=92_4 length=0.11709 units=km
New Line.SBT_2488 phases=4 bus1=BT300511.1.2.3.4 bus2=BT284831.1.2.3.4 linecode=92_4 length=0.06661 units=km
New Line.SBT_2486 phases=4 bus1=BT300481.1.2.3.4 bus2=BT300501.1.2.3.4 linecode=92_4 length=0.10085 units=km
New Line.SBT_2122 phases=4 bus1=BT284831.1.2.3.4 bus2=BT284841.1.2.3.4 linecode=92_4 length=0.08538 units=km
New Line.SBT_2123 phases=4 bus1=BT284841.1.2.3.4 bus2=BT284851.1.2.3.4 linecode=92_4 length=0.02693 units=km
New Line.SBT_2084 phases=2 bus1=BT300591.1.4 bus2=BT300601.1.4 linecode=60_2 length=0.16024 units=km
New Line.SBT_28920 phases=4 bus1=BT370741.1.2.3.4 bus2=BT300431.1.2.3.4 linecode=92_4 length=0.0623 units=km
New Line.SBT_15805 phases=4 bus1=ET1_3463.1.2.3.4 bus2=BT431381.1.2.3.4 linecode=73_4 length=0.03499 units=km
New Line.SBT_19697 phases=4 bus1=BT9811.1.2.3.4 bus2=BT345291.1.2.3.4 linecode=73_4 length=0.04916 units=km
New Line.SBT_1867 phases=4 bus1=ET1_382.1.2.3.4 bus2=BT9811.1.2.3.4 linecode=73_4 length=0.11609 units=km
New Line.SBT_2058 phases=2 bus1=BT9811.1.4 bus2=BT345281.1.4 linecode=62_2 length=0.08905 units=km
New Line.SBT_31784 phases=4 bus1=BT772611.1.2.3.4 bus2=BT9772.1.2.3.4 linecode=73_4 length=0.04024 units=km
New Line.SBT_31785 phases=4 bus1=BT9791.1.2.3.4 bus2=BT772611.1.2.3.4 linecode=73_4 length=0.0883 units=km
New Line.SBT_36083 phases=4 bus1=BT814881.1.2.3.4 bus2=BT9791.1.2.3.4 linecode=73_4 length=0.0714 units=km
New Line.SBT_36084 phases=4 bus1=ET1_382.1.2.3.4 bus2=BT814881.1.2.3.4 linecode=74_4 length=0.04526 units=km
New Line.SBT_6339 phases=4 bus1=BT345291.1.2.3.4 bus2=BT634591.1.2.3.4 linecode=73_4 length=0.09323 units=km
New Line.SBT_2060 phases=4 bus1=ET1_383.1.2.3.4 bus2=BT18441.1.2.3.4 linecode=97_4 length=0.09381 units=km
New Line.SBT_19699 phases=4 bus1=BT18441.1.2.3.4 bus2=BT18451.1.2.3.4 linecode=97_4 length=0.05511 units=km
New Line.SBT_17335 phases=4 bus1=BT18451.1.2.3.4 bus2=BT691761.1.2.3.4 linecode=97_4 length=0.05608 units=km
New Line.SBT_16613 phases=2 bus1=BT18351.1.4 bus2=BT17641.1.4 linecode=60_2 length=0.10187 units=km
New Line.SBT_19587 phases=3 bus1=BT18361.1.2.4 bus2=BT18351.1.2.4 linecode=44_3 length=0.10984 units=km
New Line.SBT_1869 phases=3 bus1=ET1_384.1.2.4 bus2=BT18361.1.2.4 linecode=44_3 length=0.10824 units=km
New Line.SBT_1870 phases=3 bus1=BT18381.1.2.4 bus2=BT18391.1.2.4 linecode=44_3 length=0.10913 units=km
New Line.SBT_1871 phases=2 bus1=BT18391.1.4 bus2=BT18401.1.4 linecode=60_2 length=0.09014 units=km
New Line.SBT_2061 phases=3 bus1=ET1_384.1.2.4 bus2=BT18381.1.2.4 linecode=44_3 length=0.09347 units=km
New Line.SBT_27210 phases=3 bus1=BT294391.1.2.4 bus2=BT294402.1.2.4 linecode=44_3 length=0.11255 units=km
New Line.SBT_15380 phases=4 bus1=ET1_3990.1.2.3.4 bus2=BT294391.1.2.3.4 linecode=73_4 length=0.05235 units=km
New Line.SBT_15580 phases=3 bus1=BT247401.1.2.4 bus2=BT247411.1.2.4 linecode=44_3 length=0.02625 units=km
New Line.SBT_27315 phases=3 bus1=BT247401.1.2.4 bus2=BT251571.1.2.4 linecode=59_3 length=0.07094 units=km
New Line.SBT_27044 phases=4 bus1=BT247451.1.2.3.4 bus2=BT348661.1.2.3.4 linecode=73_4 length=0.0488 units=km
New Line.SBT_21564 phases=4 bus1=ET1_4030.1.2.3.4 bus2=BT247451.1.2.3.4 linecode=73_4 length=0.0805 units=km
New Line.SBT_21565 phases=2 bus1=BT247471.1.4 bus2=BT247481.1.4 linecode=62_2 length=0.08877 units=km
New Line.SBT_21573 phases=2 bus1=BT247481.1.4 bus2=BT247491.1.4 linecode=62_2 length=0.0365 units=km
New Line.SBT_22874 phases=3 bus1=BT251561.1.2.4 bus2=BT251541.1.2.4 linecode=59_3 length=0.09582 units=km
New Line.SBT_5366 phases=4 bus1=ET1_4030.1.2.3.4 bus2=BT247431.1.2.3.4 linecode=73_4 length=0.05124 units=km
New Line.SBT_5367 phases=2 bus1=ET1_4030.1.4 bus2=BT247471.1.4 linecode=62_2 length=0.08005 units=km
New Line.SBT_7641 phases=3 bus1=BT251571.1.2.4 bus2=BT251561.1.2.4 linecode=59_3 length=0.06113 units=km
New Line.SBT_7642 phases=2 bus1=BT251541.1.4 bus2=BT251551.1.4 linecode=60_2 length=0.07382 units=km
New Line.SBT_7648 phases=4 bus1=BT247421.1.2.3.4 bus2=BT247401.1.2.3.4 linecode=73_4 length=0.09266 units=km
New Line.SBT_7649 phases=3 bus1=BT251541.1.2.4 bus2=BT251471.1.2.4 linecode=59_3 length=0.07622 units=km
New Line.SBT_7650 phases=4 bus1=BT247431.1.2.3.4 bus2=BT247421.1.2.3.4 linecode=73_4 length=0.08102 units=km
New Line.SBT_32225 phases=4 bus1=BT587411.1.2.3.4 bus2=BT247461.1.2.3.4 linecode=73_4 length=0.06265 units=km
New Line.SBT_32226 phases=4 bus1=BT247451.1.2.3.4 bus2=BT587411.1.2.3.4 linecode=73_4 length=0.123 units=km
New Line.SBT_28482 phases=4 bus1=BT247401.1.2.3.4 bus2=BT330401.1.2.3.4 linecode=73_4 length=0.04614 units=km
New Line.SBT_31275 phases=4 bus1=ET1_4092.1.2.3.4 bus2=BT667441.1.2.3.4 linecode=73_4 length=0.09981 units=km
New Line.SBT_15758 phases=2 bus1=ET1_4092.1.4 bus2=BT667421.1.4 linecode=62_2 length=0.10381 units=km
New Line.SBT_32507 phases=4 bus1=ET1_4097.1.2.3.4 bus2=BT653301.1.2.3.4 linecode=74_4 length=0.05289 units=km
New Line.SBT_32509 phases=4 bus1=BT114601.1.2.3.4 bus2=BT781111.1.2.3.4 linecode=74_4 length=0.0364 units=km
New Line.SBT_32499 phases=4 bus1=ET1_4097.1.2.3.4 bus2=BT114601.1.2.3.4 linecode=74_4 length=0.04689 units=km
New Line.SBT_32510 phases=4 bus1=ET1_4097.1.2.3.4 bus2=BT781121.1.2.3.4 linecode=74_4 length=0.0333 units=km
New Line.SBT_32511 phases=4 bus1=BT781121.1.2.3.4 bus2=BT781131.1.2.3.4 linecode=74_4 length=0.0488 units=km
New Line.SBT_32512 phases=4 bus1=BT781131.1.2.3.4 bus2=BT781141.1.2.3.4 linecode=74_4 length=0.03588 units=km
New Line.SBT_32513 phases=4 bus1=BT781141.1.2.3.4 bus2=BT781151.1.2.3.4 linecode=74_4 length=0.03957 units=km
New Line.SBT_11952 phases=2 bus1=ET1_431.1.4 bus2=BT380921.1.4 linecode=60_2 length=0.131 units=km
New Line.SBT_27271 phases=2 bus1=ET1_431.2.4 bus2=BT661411.2.4 linecode=60_2 length=0.01442 units=km
New Line.SBT_25311 phases=2 bus1=BT380921.1.4 bus2=BT380931.1.4 linecode=60_2 length=0.10431 units=km
New Line.SBT_27035 phases=4 bus1=ET1_4322.1.2.3.4 bus2=BT669461.1.2.3.4 linecode=73_4 length=0.051 units=km
New Line.SBT_15578 phases=4 bus1=ET1_4322.1.2.3.4 bus2=BT236131.1.2.3.4 linecode=73_4 length=0.04713 units=km
New Line.SBT_15579 phases=4 bus1=BT236131.1.2.3.4 bus2=BT236171.1.2.3.4 linecode=73_4 length=0.04649 units=km
New Line.SBT_17365 phases=2 bus1=BT366831.1.4 bus2=BT558541.1.4 linecode=50_2 length=0.06501 units=km
New Line.SBT_27486 phases=4 bus1=ET1_4625.1.2.3.4 bus2=BT366831.1.2.3.4 linecode=74_4 length=0.06008 units=km
New Line.SBT_32141 phases=2 bus1=BT777801.1.4 bus2=BT777791.1.4 linecode=50_2 length=0.04091 units=km
New Line.SBT_32142 phases=2 bus1=BT777811.1.4 bus2=BT777801.1.4 linecode=50_2 length=0.03982 units=km
New Line.SBT_32143 phases=2 bus1=BT558551.1.4 bus2=BT777811.1.4 linecode=50_2 length=0.02989 units=km
New Line.SBT_28693 phases=2 bus1=BT558541.1.4 bus2=BT558551.1.4 linecode=50_2 length=0.02202 units=km
New Line.SBT_27414 phases=4 bus1=BT285801.1.2.3.4 bus2=BT537971.1.2.3.4 linecode=73_4 length=0.07398 units=km
New Line.SBT_25972 phases=4 bus1=BT285781.1.2.3.4 bus2=BT627171.1.2.3.4 linecode=73_4 length=0.08841 units=km
New Line.SBT_2324 phases=4 bus1=BT295541.1.2.3.4 bus2=BT295551.1.2.3.4 linecode=73_4 length=0.08902 units=km
New Line.SBT_2325 phases=4 bus1=BT285811.1.2.3.4 bus2=BT285821.1.2.3.4 linecode=73_4 length=0.0408 units=km
New Line.SBT_2327 phases=4 bus1=ET1_518.1.2.3.4 bus2=BT295521.1.2.3.4 linecode=73_4 length=0.08052 units=km
New Line.SBT_2328 phases=4 bus1=ET1_518.1.2.3.4 bus2=BT285781.1.2.3.4 linecode=73_4 length=0.06845 units=km
New Line.SBT_2329 phases=4 bus1=BT285781.1.2.3.4 bus2=BT285791.1.2.3.4 linecode=73_4 length=0.07068 units=km
New Line.SBT_2330 phases=4 bus1=BT295521.1.2.3.4 bus2=BT295531.1.2.3.4 linecode=73_4 length=0.08297 units=km
New Line.SBT_2323 phases=4 bus1=BT285741.1.2.3.4 bus2=BT285751.1.2.3.4 linecode=73_4 length=0.05636 units=km
New Line.SBT_1805 phases=4 bus1=BT285811.1.2.3.4 bus2=BT295511.1.2.3.4 linecode=73_4 length=0.065 units=km
New Line.SBT_19552 phases=4 bus1=BT295551.1.2.3.4 bus2=BT295561.1.2.3.4 linecode=73_4 length=0.09047 units=km
New Line.SBT_19553 phases=4 bus1=BT295511.1.2.3.4 bus2=BT360991.1.2.3.4 linecode=73_4 length=0.0247 units=km
New Line.SBT_19846 phases=4 bus1=BT285791.1.2.3.4 bus2=BT285801.1.2.3.4 linecode=73_4 length=0.06845 units=km
New Line.SBT_19847 phases=4 bus1=BT537971.1.2.3.4 bus2=BT285811.1.2.3.4 linecode=73_4 length=0.07473 units=km
New Line.SBT_19849 phases=4 bus1=ET1_518.1.2.3.4 bus2=BT285761.1.2.3.4 linecode=73_4 length=0.06957 units=km
New Line.SBT_19850 phases=4 bus1=BT285761.1.2.3.4 bus2=BT285741.1.2.3.4 linecode=73_4 length=0.06778 units=km
New Line.SBT_19851 phases=4 bus1=BT295531.1.2.3.4 bus2=BT295541.1.2.3.4 linecode=73_4 length=0.08516 units=km
New Line.SBT_15757 phases=4 bus1=BT295561.1.2.3.4 bus2=BT537881.1.2.3.4 linecode=73_4 length=0.04405 units=km
New Line.SBT_15756 phases=4 bus1=ET1_519.1.2.3.4 bus2=BT478591.1.2.3.4 linecode=97_4 length=0.03547 units=km
New Line.SBT_19665 phases=4 bus1=BT285681.1.2.3.4 bus2=BT285691.1.2.3.4 linecode=97_4 length=0.09108 units=km
New Line.SBT_19666 phases=4 bus1=BT285691.1.2.3.4 bus2=BT285701.1.2.3.4 linecode=97_4 length=0.0506 units=km
New Line.SBT_2005 phases=4 bus1=BT284881.1.2.3.4 bus2=BT375501.1.2.3.4 linecode=73_4 length=0.06836 units=km
New Line.SBT_2006 phases=4 bus1=BT284881.1.2.3.4 bus2=BT284891.1.2.3.4 linecode=97_4 length=0.06041 units=km
New Line.SBT_2007 phases=4 bus1=BT284891.1.2.3.4 bus2=BT284901.1.2.3.4 linecode=97_4 length=0.03734 units=km
New Line.SBT_1806 phases=4 bus1=ET1_519.1.2.3.4 bus2=BT285671.1.2.3.4 linecode=97_4 length=0.07622 units=km
New Line.SBT_1808 phases=4 bus1=ET1_519.1.2.3.4 bus2=BT285661.1.2.3.4 linecode=97_4 length=0.0494 units=km
New Line.SBT_1810 phases=4 bus1=BT285641.1.2.3.4 bus2=BT284881.1.2.3.4 linecode=97_4 length=0.06768 units=km
New Line.SBT_1807 phases=4 bus1=BT478591.1.2.3.4 bus2=BT285641.1.2.3.4 linecode=97_4 length=0.04179 units=km
New Line.SBT_29867 phases=4 bus1=BT755701.1.2.3.4 bus2=BT285681.1.2.3.4 linecode=97_4 length=0.03858 units=km
New Line.SBT_29868 phases=4 bus1=BT285671.1.2.3.4 bus2=BT755701.1.2.3.4 linecode=97_4 length=0.04238 units=km
New Line.SBT_33215 phases=4 bus1=BT478591.1.2.3.4 bus2=BT789621.1.2.3.4 linecode=74_4 length=0.04597 units=km
New Line.SBT_33216 phases=4 bus1=BT789621.1.2.3.4 bus2=BT789631.1.2.3.4 linecode=74_4 length=0.05286 units=km
New Line.SBT_2495 phases=3 bus1=ET1_520.1.2.4 bus2=BT183181.1.2.4 linecode=44_3 length=0.07393 units=km
New Line.SBT_2357 phases=3 bus1=BT259001.1.2.4 bus2=BT258991.1.2.4 linecode=59_3 length=0.07433 units=km
New Line.SBT_2358 phases=3 bus1=BT239071.1.2.4 bus2=BT239091.1.2.4 linecode=44_3 length=0.10929 units=km
New Line.SBT_2359 phases=3 bus1=BT239091.1.2.4 bus2=BT251411.1.2.4 linecode=44_3 length=0.08205 units=km
New Line.SBT_2360 phases=3 bus1=BT239071.1.2.4 bus2=BT239081.1.2.4 linecode=59_3 length=0.15845 units=km
New Line.SBT_19868 phases=3 bus1=BT259011.1.2.4 bus2=BT259001.1.2.4 linecode=59_3 length=0.058 units=km
New Line.SBT_19573 phases=3 bus1=ET1_521.1.2.4 bus2=BT239061.1.2.4 linecode=59_3 length=0.08786 units=km
...
